3ln1
     RDKit          3D

 40 42  0  0  0  0  0  0  0  0999 V2000
   33.5890  -21.6370  -18.0310 C   0  0  0  0  0  0  0  0  0  0  0  0
   32.2900  -21.4240  -18.2010 N   0  0  0  0  0  0  0  0  0  0  0  0
   25.4360  -22.1060  -15.9490 O   0  0  0  0  0  0  0  0  0  0  0  0
   25.9310  -21.4670  -17.1550 S   0  0  0  0  0  0  0  0  0  0  0  0
   33.8430  -22.3370  -16.8370 C   0  0  0  0  0  0  0  0  0  0  0  0
   31.7240  -22.0060  -17.1320 N   0  0  0  0  0  0  0  0  0  0  0  0
   25.7720  -20.0390  -17.2910 O   0  0  0  0  0  0  0  0  0  0  0  0
   32.6220  -22.5740  -16.2600 C   0  0  0  0  0  0  0  0  0  0  0  0
   25.3780  -22.2260  -18.6050 N   0  0  0  0  0  0  0  0  0  0  0  0
   34.5540  -21.1350  -19.0020 C   0  0  0  0  0  0  0  0  0  0  0  0
   32.4170  -23.2370  -14.9850 C   0  0  0  0  0  0  0  0  0  0  0  0
   33.1520  -24.3730  -14.7430 C   0  0  0  0  0  0  0  0  0  0  0  0
   33.0230  -25.0300  -13.5490 C   0  0  0  0  0  0  0  0  0  0  0  0
   32.1700  -24.5410  -12.5870 C   0  0  0  0  0  0  0  0  0  0  0  0
   31.4460  -23.3900  -12.8190 C   0  0  0  0  0  0  0  0  0  0  0  0
   31.5700  -22.7350  -14.0160 C   0  0  0  0  0  0  0  0  0  0  0  0
   32.0560  -25.2900  -11.3060 C   0  0  0  0  0  0  0  0  0  0  0  0
   30.3410  -21.9670  -17.1090 C   0  0  0  0  0  0  0  0  0  0  0  0
   29.5840  -22.9640  -16.5430 C   0  0  0  0  0  0  0  0  0  0  0  0
   28.2180  -22.8290  -16.5560 C   0  0  0  0  0  0  0  0  0  0  0  0
   27.6790  -21.7060  -17.1310 C   0  0  0  0  0  0  0  0  0  0  0  0
   28.4340  -20.7140  -17.7070 C   0  0  0  0  0  0  0  0  0  0  0  0
   29.7960  -20.8530  -17.6970 C   0  0  0  0  0  0  0  0  0  0  0  0
   35.8160  -21.2140  -18.5440 F   0  0  0  0  0  0  0  0  0  0  0  0
   34.3020  -19.8280  -19.2230 F   0  0  0  0  0  0  0  0  0  0  0  0
   34.5600  -21.7520  -20.2100 F   0  0  0  0  0  0  0  0  0  0  0  0
   34.8264  -22.6350  -16.4443 H   0  0  0  0  0  0  0  0  0  0  0  0
   24.7881  -23.0356  -18.3653 H   0  0  0  0  0  0  0  0  0  0  0  0
   24.8284  -21.5522  -19.1571 H   0  0  0  0  0  0  0  0  0  0  0  0
   33.8438  -24.7541  -15.5087 H   0  0  0  0  0  0  0  0  0  0  0  0
   33.6002  -25.9470  -13.3593 H   0  0  0  0  0  0  0  0  0  0  0  0
   30.7702  -22.9987  -12.0443 H   0  0  0  0  0  0  0  0  0  0  0  0
   30.9982  -21.8144  -14.2044 H   0  0  0  0  0  0  0  0  0  0  0  0
   32.1622  -24.5920  -10.4625 H   0  0  0  0  0  0  0  0  0  0  0  0
   31.0728  -25.7806  -11.2544 H   0  0  0  0  0  0  0  0  0  0  0  0
   32.8487  -26.0509  -11.2544 H   0  0  0  0  0  0  0  0  0  0  0  0
   30.0598  -23.8470  -16.0914 H   0  0  0  0  0  0  0  0  0  0  0  0
   27.5712  -23.6024  -16.1161 H   0  0  0  0  0  0  0  0  0  0  0  0
   27.9583  -19.8333  -18.1632 H   0  0  0  0  0  0  0  0  0  0  0  0
   30.4411  -20.0866  -18.1515 H   0  0  0  0  0  0  0  0  0  0  0  0
  1  2  2  0
  1  5  1  0
  1 10  1  0
  2  6  1  0
  3  4  2  0
  4  7  2  0
  4  9  1  0
  4 21  1  0
  5  8  2  0
  6  8  1  0
  6 18  1  0
  8 11  1  0
 10 24  1  0
 10 25  1  0
 10 26  1  0
 11 12  2  0
 11 16  1  0
 12 13  1  0
 13 14  2  0
 14 15  1  0
 14 17  1  0
 15 16  2  0
 18 19  2  0
 18 23  1  0
 19 20  1  0
 20 21  2  0
 21 22  1  0
 22 23  2  0
  5 27  1  0
  9 28  1  0
  9 29  1  0
 12 30  1  0
 13 31  1  0
 15 32  1  0
 16 33  1  0
 17 34  1  0
 17 35  1  0
 17 36  1  0
 19 37  1  0
 20 38  1  0
 22 39  1  0
 23 40  1  0
M  END
$$$$
